AMOSTRA/CSO/Linhas.dss
! ==========================================================
! LINHAS — geradas de SSDMT
! Barras = PAC_1 / PAC_2 da BDGD (preservados)
! ==========================================================
New Line.25448_12920551 Bus1=25448-10867330.1.2 Bus2=25448-10868067.1.2 LineCode=CND_M20_89_2F Length=125.64 Units=m
New Line.25448_12920552 Bus1=25448-10866672.1.2 Bus2=25448-10866673.1.2 LineCode=CND_M20_89_2F Length=38.39 Units=m
New Line.25448_12920558 Bus1=25448-10866158.2 Bus2=25448-10866089.2 LineCode=CND_M10_89_1F Length=59.48 Units=m
New Line.25448_12920561 Bus1=25448-10865253.1 Bus2=25448-10866924.1 LineCode=CND_M10_89_1F Length=128.97 Units=m
New Line.25448_12920563 Bus1=25448-10866979c.1 Bus2=25448-10865807.1 LineCode=CND_M10_89_1F Length=78.29 Units=m
New Line.25448_12920565 Bus1=25448-10866100.1 Bus2=25448-10867346.1 LineCode=CND_M10_89_1F Length=39.40 Units=m
New Line.25448_12920566 Bus1=25448-10866961.1 Bus2=25448-10866962.1 LineCode=CND_M10_89_1F Length=105.52 Units=m
New Line.25448_12920568 Bus1=25448-10866963.1 Bus2=25448-10867739.1 LineCode=CND_M10_89_1F Length=148.83 Units=m
New Line.25448_12920571 Bus1=25448-10867289.2 Bus2=25448-10867684.2 LineCode=CND_M10_89_1F Length=128.19 Units=m
New Line.25448_12920572 Bus1=25448-10866743.2 Bus2=25448-10865237.2 LineCode=CND_M10_89_1F Length=86.29 Units=m
New Line.25448_12920573 Bus1=25448-10867306.2 Bus2=25448-10868113.2 LineCode=CND_M10_89_1F Length=70.23 Units=m
New Line.25448_12920577 Bus1=25448-10866749.2 Bus2=25448-10867667.2 LineCode=CND_M10_89_1F Length=135.89 Units=m
New Line.25448_12920580 Bus1=25448-10866050.2 Bus2=25448-10865622.2 LineCode=CND_M10_89_1F Length=55.27 Units=m
New Line.25448_12920581 Bus1=25448-10866475.2 Bus2=25448-10867664.2 LineCode=CND_M10_89_1F Length=84.15 Units=m
New Line.25448_12920634 Bus1=25448-10868057.2 Bus2=25448-10866480.2 LineCode=CND_M10_89_1F Length=92.77 Units=m
New Line.25448_12920635 Bus1=25448-10866462.2 Bus2=25448-10866743.2 LineCode=CND_M10_89_1F Length=101.86 Units=m
New Line.25448_12920638 Bus1=25448-10865627.2 Bus2=25448-10866058.2 LineCode=CND_M10_89_1F Length=103.45 Units=m
New Line.25448_12920642 Bus1=25448-10868107.2 Bus2=25448-10865612.2 LineCode=CND_M10_89_1F Length=122.77 Units=m
New Line.25448_12920648 Bus1=25448-10865616.2 Bus2=25448-10865628.2 LineCode=CND_M10_89_1F Length=88.67 Units=m
New Line.25448_12920649 Bus1=25448-10866750.2 Bus2=25448-10865224.2 LineCode=CND_M10_89_1F Length=120.71 Units=m
New Line.25448_12920539 Bus1=25448-10866106c.1 Bus2=25448-10866961.1 LineCode=CND_M10_89_1F Length=115.51 Units=m
New Line.25448_12920544 Bus1=25448-10868095c.1 Bus2=25448-10865407.1 LineCode=CND_M10_89_1F Length=117.33 Units=m
New Line.16088_12920449 Bus1=16088-10865323.1 Bus2=16088-10865319.1 LineCode=CND_M10_89_1F Length=100.52 Units=m
New Line.16088_12920450 Bus1=16088-10868258.1 Bus2=16088-10867009.1 LineCode=CND_M10_89_1F Length=135.04 Units=m
New Line.16088_12920451 Bus1=16088-10867010.1 Bus2=16088-10865320.1 LineCode=CND_M10_89_1F Length=78.69 Units=m
New Line.16088_12920452 Bus1=16088-10867773.1 Bus2=16088-10868259.1 LineCode=CND_M10_89_1F Length=117.58 Units=m
New Line.25448_12920454 Bus1=25448-10867704.2 Bus2=25448-10867457.2 LineCode=CND_M10_89_1F Length=97.37 Units=m
New Line.25448_12920456 Bus1=25448-10865283.2 Bus2=25448-10865402.2 LineCode=CND_M10_89_1F Length=78.64 Units=m
New Line.25448_12920457 Bus1=25448-10865252.2 Bus2=25448-10865285c.2 LineCode=CND_M10_89_1F Length=122.84 Units=m
New Line.25448_12920458 Bus1=25448-10865285.2 Bus2=25448-10865206.2 LineCode=CND_M10_89_1F Length=83.93 Units=m
New Line.25448_12920460 Bus1=25448-10867370.2 Bus2=25448-10867760.2 LineCode=CND_M10_89_1F Length=123.44 Units=m
New Line.25448_12920461 Bus1=25448-10866921.2 Bus2=25448-10866663.2 LineCode=CND_M10_89_1F Length=175.59 Units=m
New Line.25448_12920462 Bus1=25448-10866111c.2 Bus2=25448-10868292.2 LineCode=CND_M10_89_1F Length=120.00 Units=m
New Line.25448_12920466 Bus1=25448-10867746.2 Bus2=25448-10867705.2 LineCode=CND_M10_89_1F Length=117.67 Units=m
New Line.25448_12920467 Bus1=25448-10868117c.2 Bus2=25448-10867450.2 LineCode=CND_M10_89_1F Length=118.88 Units=m
New Line.25448_12920468 Bus1=25448-10865287c.2 Bus2=25448-10865283.2 LineCode=CND_M10_89_1F Length=74.84 Units=m
New Line.25448_12920471 Bus1=25448-10867760.2 Bus2=25448-10865401.2 LineCode=CND_M10_89_1F Length=122.25 Units=m
New Line.25448_12920474 Bus1=25448-10866111.2 Bus2=25448-10866247.2 LineCode=CND_M10_89_1F Length=85.49 Units=m
New Line.25448_12920476 Bus1=25448-10868101.2 Bus2=25448-10866080.2 LineCode=CND_M10_89_1F Length=258.89 Units=m
New Line.25448_12920477 Bus1=25448-10866062.2 Bus2=25448-10865399.2 LineCode=CND_M10_89_1F Length=114.50 Units=m
New Line.25448_12920478 Bus1=25448-10866892c.2 Bus2=25448-10866579.2 LineCode=CND_M10_89_1F Length=94.36 Units=m
New Line.25448_12920479 Bus1=25448-10867324c.2 Bus2=25448-10867085.2 LineCode=CND_M10_89_1F Length=120.45 Units=m
New Line.25448_12920481 Bus1=25448-10865647.2 Bus2=25448-10867746.2 LineCode=CND_M10_89_1F Length=151.78 Units=m
New Line.16088_12920360 Bus1=16088-10866513.1.2.3 Bus2=16088-10867780.1.2.3 LineCode=CND_M30_89_3F Length=147.34 Units=m
New Line.16088_12920363 Bus1=16088-10868262.1 Bus2=16088-10865327.1 LineCode=CND_M10_89_1F Length=136.81 Units=m
New Line.16088_12920365 Bus1=16088-10865326.1 Bus2=16088-10866176.1 LineCode=CND_M10_89_1F Length=78.58 Units=m
New Line.16088_12920366 Bus1=16088-10867012.1 Bus2=16088-10866168.1 LineCode=CND_M10_89_1F Length=98.45 Units=m
New Line.16088_12920370 Bus1=16088-10865324.1 Bus2=16088-10867010.1 LineCode=CND_M10_89_1F Length=124.58 Units=m
New Line.16088_12920372 Bus1=16088-10867778.1 Bus2=16088-10865722.1 LineCode=CND_M10_89_1F Length=409.39 Units=m
New Line.16088_12920373 Bus1=16088-10865728.1 Bus2=16088-10868260.1 LineCode=CND_M10_89_1F Length=341.58 Units=m
New Line.16088_12920375 Bus1=16088-10866506.1 Bus2=16088-10866514.1 LineCode=CND_M10_89_1F Length=331.04 Units=m
New Line.16088_12920376 Bus1=16088-10867005.1 Bus2=16088-10867002.1 LineCode=CND_M10_89_1F Length=107.53 Units=m
New Line.16088_12920377 Bus1=16088-10867002.1 Bus2=16088-10866171.1 LineCode=CND_M10_89_1F Length=142.00 Units=m
New Line.16088_12920378 Bus1=16088-10868166.1 Bus2=16088-10865725.1 LineCode=CND_M10_89_1F Length=57.81 Units=m
New Line.16088_12920379 Bus1=16088-10867388.1 Bus2=16088-10866504.1 LineCode=CND_M10_89_1F Length=134.29 Units=m
New Line.16088_12920381 Bus1=16088-10868166.1 Bus2=16088-10865330.1 LineCode=CND_M10_89_1F Length=101.40 Units=m
New Line.16088_12920383 Bus1=16088-10867770.1 Bus2=16088-10867390.1 LineCode=CND_M10_89_1F Length=128.51 Units=m
New Line.16088_12920384 Bus1=16088-10866516.1 Bus2=16088-10865721.1 LineCode=CND_M10_89_1F Length=146.46 Units=m
New Line.16088_12920385 Bus1=16088-10867389.1 Bus2=16088-10867006.1 LineCode=CND_M10_89_1F Length=247.37 Units=m
New Line.16088_12920387 Bus1=16088-10867009.1 Bus2=16088-10865323.1 LineCode=CND_M10_89_1F Length=266.00 Units=m
New Line.16088_12920390 Bus1=16088-10867780.1.2.3 Bus2=16088-10865723.1.2.3 LineCode=CND_M30_89_3F Length=131.08 Units=m
New Line.16088_12920394 Bus1=16088-10865327.1 Bus2=16088-10865809.1 LineCode=CND_M10_89_1F Length=127.34 Units=m
New Line.25448_12920699 Bus1=25448-10867292.2 Bus2=25448-10866740.2 LineCode=CND_M10_89_1F Length=133.44 Units=m
New Line.25448_12920595 Bus1=25448-10866476.2 Bus2=25448-10865613.2 LineCode=CND_M10_89_1F Length=121.07 Units=m
New Line.25448_12920596 Bus1=25448-10867295.2 Bus2=25448-10867287.2 LineCode=CND_M10_89_1F Length=126.52 Units=m
New Line.25448_12920597 Bus1=25448-10865232.2 Bus2=25448-10865804.2 LineCode=CND_M10_89_1F Length=82.88 Units=m
New Line.25448_12920599 Bus1=25448-10865621.2 Bus2=25448-10866742.2 LineCode=CND_M10_89_1F Length=134.10 Units=m
New Line.25448_12920600 Bus1=25448-10865625.2 Bus2=25448-10865620.2 LineCode=CND_M10_89_1F Length=132.14 Units=m
New Line.25448_12920601 Bus1=25448-10868104c.2 Bus2=25448-10866054.2 LineCode=CND_M10_89_1F Length=125.56 Units=m
New Line.25448_12920604 Bus1=25448-10865223.2 Bus2=25448-10867674.2 LineCode=CND_M10_89_1F Length=131.66 Units=m
New Line.25448_12920605 Bus1=25448-10867689.2 Bus2=25448-10866473.2 LineCode=CND_M10_89_1F Length=134.72 Units=m
New Line.25448_12920608 Bus1=25448-10866753.2 Bus2=25448-10867291.2 LineCode=CND_M10_89_1F Length=138.23 Units=m
New Line.25448_12920609 Bus1=25448-10865238.2 Bus2=25448-10868105.2 LineCode=CND_M10_89_1F Length=141.84 Units=m
New Line.25448_12920610 Bus1=25448-10866060.2 Bus2=25448-10867285.2 LineCode=CND_M10_89_1F Length=131.17 Units=m
New Line.25448_12920612 Bus1=25448-10865617.2 Bus2=25448-10866754.2 LineCode=CND_M10_89_1F Length=104.42 Units=m
New Line.25448_12920613 Bus1=25448-10866048.2 Bus2=25448-10867079.2 LineCode=CND_M10_89_1F Length=120.75 Units=m
New Line.25448_12920615 Bus1=25448-10866740.2 Bus2=25448-10867673.2 LineCode=CND_M10_89_1F Length=149.08 Units=m
New Line.25448_12920617 Bus1=25448-10868058.2 Bus2=25448-10868115.2 LineCode=CND_M10_89_1F Length=96.98 Units=m
New Line.25448_12920620 Bus1=25448-10866745.2 Bus2=25448-10868057.2 LineCode=CND_M10_89_1F Length=97.72 Units=m
New Line.25448_12920622 Bus1=25448-10865626.2 Bus2=25448-10866464.2 LineCode=CND_M10_89_1F Length=126.00 Units=m
New Line.25448_12920623 Bus1=25448-10868112.2 Bus2=25448-10865218.2 LineCode=CND_M10_89_1F Length=128.02 Units=m
New Line.25448_12920662 Bus1=25448-10868054.2 Bus2=25448-10868104.2 LineCode=CND_M10_89_1F Length=118.32 Units=m
New Line.25448_12920664 Bus1=25448-10865229.2 Bus2=25448-10865223.2 LineCode=CND_M10_89_1F Length=125.09 Units=m
New Line.25448_12920668 Bus1=25448-10866469.2 Bus2=25448-10865239.2 LineCode=CND_M10_89_1F Length=134.90 Units=m
New Line.25448_12920670 Bus1=25448-10868105.2 Bus2=25448-10865227.2 LineCode=CND_M10_89_1F Length=143.64 Units=m
New Line.25448_12920671 Bus1=25448-10867285c.2 Bus2=25448-10866467.2 LineCode=CND_M10_89_1F Length=114.73 Units=m
New Line.25448_12920674 Bus1=25448-10867303.2 Bus2=25448-10865611.2 LineCode=CND_M10_89_1F Length=208.22 Units=m
New Line.25448_12920676 Bus1=25448-10866464.2 Bus2=25448-10865226.2 LineCode=CND_M10_89_1F Length=128.56 Units=m
New Line.25448_12920680 Bus1=25448-10867683.2 Bus2=25448-10865216.2 LineCode=CND_M10_89_1F Length=84.80 Units=m
New Line.25448_12920685 Bus1=25448-10866748.2 Bus2=25448-10866042.2 LineCode=CND_M10_89_1F Length=102.62 Units=m
New Line.25448_12920686 Bus1=25448-10866473c.2 Bus2=25448-10868116.2 LineCode=CND_M10_89_1F Length=103.84 Units=m
New Line.25448_12920687 Bus1=25448-10867676.2 Bus2=25448-10865632.2 LineCode=CND_M10_89_1F Length=130.13 Units=m
New Line.25448_12920688 Bus1=25448-10866754.2 Bus2=25448-10866061.2 LineCode=CND_M10_89_1F Length=92.71 Units=m
New Line.25448_12920690 Bus1=25448-10867299.2 Bus2=25448-10867292.2 LineCode=CND_M10_89_1F Length=134.34 Units=m
New Line.25448_12920691 Bus1=25448-10867673.2 Bus2=25448-10865623.2 LineCode=CND_M10_89_1F Length=141.61 Units=m
New Line.25448_12920692 Bus1=25448-10866055.2 Bus2=25448-10866050.2 LineCode=CND_M10_89_1F Length=95.16 Units=m
New Line.25448_12920693 Bus1=25448-10868115.2 Bus2=25448-10867305.2 LineCode=CND_M10_89_1F Length=86.30 Units=m
New Line.25448_12920695 Bus1=25448-10867688.2 Bus2=25448-10866744.2 LineCode=CND_M10_89_1F Length=89.80 Units=m
New Line.25448_12920697 Bus1=25448-10866051.2 Bus2=25448-10868294.2 LineCode=CND_M10_89_1F Length=151.72 Units=m
New Line.25448_12920698 Bus1=25448-10866480.2 Bus2=25448-10866059.2 LineCode=CND_M10_89_1F Length=73.67 Units=m
New Line.25448_12920747 Bus1=25448-10865239.2 Bus2=25448-10866753.2 LineCode=CND_M10_89_1F Length=139.66 Units=m
New Line.25448_12920748 Bus1=25448-10865234.2 Bus2=25448-10865238.2 LineCode=CND_M10_89_1F Length=128.60 Units=m
New Line.25448_12920749 Bus1=25448-10865227.2 Bus2=25448-10866060.2 LineCode=CND_M10_89_1F Length=142.33 Units=m
New Line.25448_12920751 Bus1=25448-10865632.2 Bus2=25448-10865617.2 LineCode=CND_M10_89_1F Length=103.86 Units=m
New Line.25448_12920752 Bus1=25448-10866061.2 Bus2=25448-10866048.2 LineCode=CND_M10_89_1F Length=143.27 Units=m
New Line.25448_12920754 Bus1=25448-10866996.2 Bus2=25448-10867816.2 LineCode=CND_M10_89_1F Length=137.35 Units=m
New Line.25448_12920755 Bus1=25448-10868252.2 Bus2=25448-10867380.2 LineCode=CND_M10_89_1F Length=91.08 Units=m
New Line.25448_12920756 Bus1=25448-10867380.2 Bus2=25448-10866996.2 LineCode=CND_M10_89_1F Length=131.84 Units=m
New Line.16088_12920757 Bus1=16088-10865744.1.2.3 Bus2=16088-10866987.1.2.3 LineCode=CND_M30_89_3F Length=42.80 Units=m
New Line.16088_12920761 Bus1=16088-10865743.1 Bus2=16088-10867093.1 LineCode=CND_M10_89_1F Length=147.41 Units=m
New Line.25448_12920765 Bus1=25448-10866957.1 Bus2=25448-10868083.1 LineCode=CND_M10_89_1F Length=154.86 Units=m
New Line.25448_12920766 Bus1=25448-10866956.1 Bus2=25448-10865271.1 LineCode=CND_M10_89_1F Length=140.01 Units=m
New Line.25448_12920769 Bus1=25448-10867341.1 Bus2=25448-10865268.1 LineCode=CND_M10_89_1F Length=84.65 Units=m
New Line.25448_12920771 Bus1=25448-10868074.1 Bus2=25448-10866958.1 LineCode=CND_M10_89_1F Length=115.80 Units=m
New Line.25448_12920654 Bus1=25448-10867296.2 Bus2=25448-10865614.2 LineCode=CND_M10_89_1F Length=125.82 Units=m
New Line.25448_12920655 Bus1=25448-10867675.2 Bus2=25448-10868055.2 LineCode=CND_M10_89_1F Length=120.36 Units=m
New Line.25448_12920656 Bus1=25448-10867295c.2 Bus2=25448-10866476.2 LineCode=CND_M10_89_1F Length=129.14 Units=m
New Line.25448_12920658 Bus1=25448-10867287.2 Bus2=25448-10866755.2 LineCode=CND_M10_89_1F Length=139.02 Units=m
New Line.25448_12920659 Bus1=25448-10866749c.2 Bus2=25448-10865233.2 LineCode=CND_M10_89_1F Length=65.42 Units=m
New Line.25448_12920660 Bus1=25448-10868109.2 Bus2=25448-10865621.2 LineCode=CND_M10_89_1F Length=121.96 Units=m
New Line.25448_12920661 Bus1=25448-10867682.2 Bus2=25448-10865803.2 LineCode=CND_M10_89_1F Length=111.64 Units=m
New Line.25448_12920711 Bus1=25448-10867684.2 Bus2=25448-10866477.2 LineCode=CND_M10_89_1F Length=127.54 Units=m
New Line.25448_12920714 Bus1=25448-10865237.2 Bus2=25448-10865236.2 LineCode=CND_M10_89_1F Length=104.15 Units=m
New Line.25448_12920717 Bus1=25448-10866058.2 Bus2=25448-10865631.2 LineCode=CND_M10_89_1F Length=92.33 Units=m
New Line.25448_12920718 Bus1=25448-10867681.2 Bus2=25448-10866750.2 LineCode=CND_M10_89_1F Length=85.55 Units=m
New Line.25448_12920719 Bus1=25448-10866044c.2 Bus2=25448-10866239.2 LineCode=CND_M10_89_1F Length=53.76 Units=m
New Line.25448_12920722 Bus1=25448-10866050c.2 Bus2=25448-10868297.2 LineCode=CND_M10_89_1F Length=218.44 Units=m
New Line.25448_12920723 Bus1=25448-10866050.2 Bus2=25448-10866475.2 LineCode=CND_M10_89_1F Length=144.19 Units=m
New Line.25448_12920725 Bus1=25448-10865619.2 Bus2=25448-10866474.2 LineCode=CND_M10_89_1F Length=66.73 Units=m
New Line.25448_12920726 Bus1=25448-10867663.2 Bus2=25448-10867080.2 LineCode=CND_M10_89_1F Length=162.68 Units=m
New Line.25448_12920728 Bus1=25448-10865224.2 Bus2=25448-10867680.2 LineCode=CND_M10_89_1F Length=103.43 Units=m
New Line.25448_12920729 Bus1=25448-10865230.2 Bus2=25448-10867302.2 LineCode=CND_M10_89_1F Length=123.93 Units=m
New Line.25448_12920731 Bus1=25448-10865235.2 Bus2=25448-10866053.2 LineCode=CND_M10_89_1F Length=120.47 Units=m
New Line.25448_12920733 Bus1=25448-10868108.2 Bus2=25448-10867296.2 LineCode=CND_M10_89_1F Length=127.93 Units=m
New Line.25448_12920735 Bus1=25448-10867301.2 Bus2=25448-10867295.2 LineCode=CND_M10_89_1F Length=102.45 Units=m
New Line.25448_12920738 Bus1=25448-10865233.2 Bus2=25448-10865232.2 LineCode=CND_M10_89_1F Length=101.92 Units=m
New Line.25448_12920740 Bus1=25448-10866742.2 Bus2=25448-10867682.2 LineCode=CND_M10_89_1F Length=69.52 Units=m
New Line.25448_12920741 Bus1=25448-10865620.2 Bus2=25448-10868054.2 LineCode=CND_M10_89_1F Length=133.62 Units=m
New Line.25448_12920743 Bus1=25448-10867678.2 Bus2=25448-10865229.2 LineCode=CND_M10_89_1F Length=133.09 Units=m
New Line.25448_12920745 Bus1=25448-10866473.2 Bus2=25448-10866472.2 LineCode=CND_M10_89_1F Length=145.79 Units=m
New Line.25448_12920783 Bus1=25448-10868127.1 Bus2=25448-10866971.1 LineCode=CND_M10_89_1F Length=107.47 Units=m
New Line.25448_12920784 Bus1=25448-10866685.1 Bus2=25448-10866684.1 LineCode=CND_M10_89_1F Length=184.11 Units=m
New Line.25448_12920786 Bus1=25448-10866086.1.2 Bus2=25448-10865262.1.2 LineCode=CND_M20_89_2F Length=112.17 Units=m
New Line.25448_12920787 Bus1=25448-10866679.1.2 Bus2=25448-10867336.1.2 LineCode=CND_M20_89_2F Length=110.67 Units=m
New Line.25448_12920789 Bus1=25448-10865711.1 Bus2=25448-10866943.1 LineCode=CND_M10_89_1F Length=64.87 Units=m
New Line.25448_12920790 Bus1=25448-10866944.1 Bus2=25448-10866155.1 LineCode=CND_M10_89_1F Length=153.24 Units=m
New Line.25448_12920791 Bus1=25448-10866979.1 Bus2=25448-10867706.1 LineCode=CND_M10_89_1F Length=88.25 Units=m
New Line.25448_12920792 Bus1=25448-10868190.1.2 Bus2=25448-10866498.1.2 LineCode=CND_M20_89_2F Length=92.25 Units=m
New Line.25448_12920793 Bus1=25448-10866665.1.2 Bus2=25448-10866667.1.2 LineCode=CND_M20_89_2F Length=112.06 Units=m
New Line.25448_12920795 Bus1=25448-10866925.1.2 Bus2=25448-10865651.1.2 LineCode=CND_M20_89_2F Length=67.09 Units=m
New Line.25448_12920798 Bus1=25448-10867711.1 Bus2=25448-10867812.1 LineCode=CND_M10_89_1F Length=150.96 Units=m
New Line.25448_12920801 Bus1=25448-10865267.1 Bus2=25448-10866245.1 LineCode=CND_M10_89_1F Length=131.65 Units=m
New Line.25448_12920803 Bus1=25448-10866091.1.2 Bus2=25448-10866926.1.2 LineCode=CND_M20_89_2F Length=106.40 Units=m
New Line.25448_12920806 Bus1=25448-10866676.1.2 Bus2=25448-10865260.1.2 LineCode=CND_M20_89_2F Length=109.42 Units=m
New Line.25448_12920943 Bus1=25448-10866926.1.2 Bus2=25448-10866672.1.2 LineCode=CND_M20_89_2F Length=135.22 Units=m
New Line.25448_12920944 Bus1=25448-10866950.1.2 Bus2=25448-10866674.1.2 LineCode=CND_M20_89_2F Length=101.48 Units=m
New Line.25448_12920945 Bus1=25448-10867713.1.2 Bus2=25448-10865259.1.2 LineCode=CND_M20_89_2F Length=113.22 Units=m
New Line.25448_12920948 Bus1=25448-10866089c.2 Bus2=25448-10867339.2 LineCode=CND_M10_89_1F Length=135.40 Units=m
New Line.25448_12920949 Bus1=25448-10866492c.1 Bus2=25448-10866949.1 LineCode=CND_M10_89_1F Length=125.96 Units=m
New Line.25448_12920950 Bus1=25448-10866949.1 Bus2=25448-10866948.1 LineCode=CND_M10_89_1F Length=135.26 Units=m
New Line.25448_12920842 Bus1=25448-10868092.1 Bus2=25448-10868081.1 LineCode=CND_M10_89_1F Length=126.99 Units=m
New Line.25448_12920845 Bus1=25448-10865261.1.2 Bus2=25448-10866087.1.2 LineCode=CND_M20_89_2F Length=193.50 Units=m
New Line.25448_12920847 Bus1=25448-10865312.1 Bus2=25448-10865711.1 LineCode=CND_M10_89_1F Length=97.16 Units=m
New Line.25448_12920848 Bus1=25448-10866493.1 Bus2=25448-10866944.1 LineCode=CND_M10_89_1F Length=142.28 Units=m
New Line.25448_12920850 Bus1=25448-10866957c.1 Bus2=25448-10866956.1 LineCode=CND_M10_89_1F Length=109.72 Units=m
New Line.25448_12920851 Bus1=25448-10866955.1 Bus2=25448-10865270.1 LineCode=CND_M10_89_1F Length=130.48 Units=m
New Line.25448_12920856 Bus1=25448-10865661.1 Bus2=25448-10867344.1 LineCode=CND_M10_89_1F Length=126.14 Units=m
New Line.25448_12920859 Bus1=25448-10866960.1 Bus2=25448-10866099.1 LineCode=CND_M10_89_1F Length=231.33 Units=m
New Line.25448_12920860 Bus1=25448-10867345.1 Bus2=25448-10865662.1 LineCode=CND_M10_89_1F Length=132.68 Units=m
New Line.25448_12920863 Bus1=25448-10868096.1 Bus2=25448-10868130.1 LineCode=CND_M10_89_1F Length=107.59 Units=m
New Line.25448_12920865 Bus1=25448-10867706.1 Bus2=25448-10866108.1 LineCode=CND_M10_89_1F Length=131.84 Units=m
New Line.25448_12920921 Bus1=25448-10866976.1 Bus2=25448-10866689.1 LineCode=CND_M10_89_1F Length=121.17 Units=m
New Line.25448_12920925 Bus1=25448-10867337.1.2 Bus2=25448-10865263.1.2 LineCode=CND_M20_89_2F Length=110.90 Units=m
New Line.25448_12920926 Bus1=25448-10866087.1.2 Bus2=25448-10866086.1.2 LineCode=CND_M20_89_2F Length=99.76 Units=m
New Line.25448_12920928 Bus1=25448-10865653.1.2 Bus2=25448-10866678.1.2 LineCode=CND_M20_89_2F Length=73.55 Units=m
New Line.25448_12920929 Bus1=25448-10865706.1 Bus2=25448-10868186.1 LineCode=CND_M10_89_1F Length=120.36 Units=m
New Line.25448_12920930 Bus1=25448-10867743.1 Bus2=25448-10866923.1 LineCode=CND_M10_89_1F Length=184.79 Units=m
New Line.25448_12920932 Bus1=25448-10868189.1.2 Bus2=25448-10866994.1.2 LineCode=CND_M20_89_2F Length=143.10 Units=m
New Line.25448_12920935 Bus1=25448-10867328.2 Bus2=25448-10868215.2 LineCode=CND_M10_89_1F Length=101.72 Units=m
New Line.25448_12920936 Bus1=25448-10866664.1.2 Bus2=25448-10867710.1.2 LineCode=CND_M20_89_2F Length=82.25 Units=m
New Line.25448_12920938 Bus1=25448-10866668.1 Bus2=25448-10868066.1 LineCode=CND_M10_89_1F Length=148.54 Units=m
New Line.25448_12920941 Bus1=25448-10866092c.1 Bus2=25448-10865267.1 LineCode=CND_M10_89_1F Length=134.40 Units=m
New Line.25448_12920898 Bus1=25448-10868069.1.2 Bus2=25448-10868068.1.2 LineCode=CND_M20_89_2F Length=116.16 Units=m
New Line.25448_12920899 Bus1=25448-10866680.2 Bus2=25448-10865659.2 LineCode=CND_M10_89_1F Length=90.09 Units=m
New Line.25448_12920900 Bus1=25448-10865665.1 Bus2=25448-10866686.1 LineCode=CND_M10_89_1F Length=130.96 Units=m
New Line.25448_12920902 Bus1=25448-10868079.1 Bus2=25448-10866685.1 LineCode=CND_M10_89_1F Length=50.64 Units=m
New Line.25448_12920903 Bus1=25448-10866965.1 Bus2=25448-10866683.1 LineCode=CND_M10_89_1F Length=144.93 Units=m
New Line.25448_12920906 Bus1=25448-10868093.1 Bus2=25448-10868094.1 LineCode=CND_M10_89_1F Length=129.66 Units=m
New Line.25448_12920907 Bus1=25448-10867744.1 Bus2=25448-10868127.1 LineCode=CND_M10_89_1F Length=132.99 Units=m
New Line.25448_12920912 Bus1=25448-10866099.1 Bus2=25448-10866959.1 LineCode=CND_M10_89_1F Length=130.72 Units=m
New Line.25448_12920913 Bus1=25448-10865662.1 Bus2=25448-10865273.1 LineCode=CND_M10_89_1F Length=110.85 Units=m
New Line.25448_12920917 Bus1=25448-10868097.1 Bus2=25448-10865280.1 LineCode=CND_M10_89_1F Length=99.93 Units=m
New Line.16088_12920966 Bus1=16088-10866190.2 Bus2=16088-10866531.2 LineCode=CND_M10_89_1F Length=275.46 Units=m
New Line.16088_12920969 Bus1=16088-10865973.1.2.3 Bus2=16088-10865035.1.2.3 LineCode=CND_M30_32_3F Length=103.01 Units=m
New Line.16088_12920970 Bus1=16088-10865035.1.2.3 Bus2=16088-10867064.1.2.3 LineCode=CND_M30_32_3F Length=118.78 Units=m
New Line.16088_12920971 Bus1=cso09b1.1.2.3 Bus2=16088-10867236.1.2.3 LineCode=CND_M30_1_3F Length=30.57 Units=m
New Line.16088_12920972 Bus1=16088-10865950.2 Bus2=16088-10866014.2 LineCode=CND_M10_33_1F Length=82.97 Units=m
New Line.16088_12920973 Bus1=16088-10866014.2 Bus2=16088-10865191.2 LineCode=CND_M10_33_1F Length=79.94 Units=m
New Line.16088_12920982 Bus1=16088-10867915.2 Bus2=16088-10865192.2 LineCode=CND_M10_33_1F Length=166.85 Units=m
New Line.16088_12920983 Bus1=16088-10865192.2 Bus2=16088-10867642.2 LineCode=CND_M10_33_1F Length=159.53 Units=m
...
